**Heading
 skirt  with openings and holes under load, shell mesh

*INCLUDE, INPUT=gmsh_hls7.inp

*BOUNDARY
base_plate_center_YFIX,1,6

*MATERIAL,NAME=STEEL
*ELASTIC
210000,0.3

*SHELL SECTION, ELSET=skir_sless, MATERIAL=STEEL
25
*SHELL SECTION, ELSET=skir_carbo_mid, MATERIAL=STEEL
25
*SHELL SECTION, ELSET=skir_carbo_und, MATERIAL=STEEL
25

*STEP, NLGEOM, INC=200
*STATIC
*CLOAD
skir_sless_top_LOAD,3,23.38E3
*NODE FILE
U
*NODE PRINT, TOTALS=YES
RF
RM
*EL FILE
S
*END STEP

