**
** Heading +++++++++++++++++++++++++++++++++++++++++++++++++
**
*Heading
Hash: SQ5nkzSL, Date: 01/18/2026, Unit system: MM_TON_S_C
**
** Nodes +++++++++++++++++++++++++++++++++++++++++++++++++++
**
*Node
1, 0.00000000E+000, 1.00100000E+000
2, 1.20000000E+001, 1.00100000E+000
3, 1.50000000E+001, 4.00100000E+000
4, 1.50000000E+001, 2.60010000E+001
5, 0.00000000E+000, 2.60010000E+001
6, 0.00000000E+000, 0.00000000E+000
7, 3.61000000E+001, 0.00000000E+000
8, 3.61000000E+001, 1.00000000E+000
9, 0.00000000E+000, 1.00000000E+000
10, 1.61000000E+001, 1.00000000E+000
11, 3.61000000E+001, 1.00000000E+000
12, 3.61000000E+001, 9.00000000E+000
13, 1.61000000E+001, 9.00000000E+000
14, 1.91000000E+001, 0.00000000E+000
15, 3.61000000E+001, 0.00000000E+000
16, 3.61000000E+001, -3.50000000E+001
17, 1.61000000E+001, -3.50000000E+001
18, 1.61000000E+001, -3.00000000E+000
19, 3.81848553E+000, 1.00100000E+000
20, 7.02943702E+000, 1.00100000E+000
** ... 1569 like lines cut
**
** Elements ++++++++++++++++++++++++++++++++++++++++++++++++
**
*Element, Type=CAX8R, Elset=Punch_
233, 485, 493, 502, 482, 510, 511, 512, 513
234, 479, 501, 493, 492, 514, 515, 516, 517
235, 494, 488, 54, 55, 518, 519, 60, 520
236, 506, 489, 505, 480, 521, 522, 523, 524
237, 478, 496, 479, 492, 525, 526, 517, 527
238, 478, 492, 486, 491, 527, 528, 529, 530
239, 486, 485, 53, 481, 531, 532, 533, 534
240, 488, 481, 53, 54, 535, 533, 59, 519
241, 486, 487, 490, 491, 536, 537, 538, 529
242, 477, 508, 500, 499, 539, 540, 541, 542
243, 477, 497, 509, 508, 543, 544, 545, 539
244, 487, 488, 494, 489, 546, 518, 547, 548
245, 482, 52, 53, 485, 549, 58, 532, 513
246, 487, 489, 506, 490, 548, 521, 550, 537
247, 486, 481, 488, 487, 534, 535, 546, 536
248, 3, 484, 2, 26, 551, 552, 27, 28
249, 45, 498, 502, 483, 553, 554, 555, 556
250, 485, 486, 492, 493, 531, 528, 516, 510
251, 21, 2, 484, 503, 25, 552, 557, 558
252, 489, 494, 19, 505, 547, 559, 560, 522
** ... 24 like lines cut
*Element, Type=CAX8R, Elset=Blank_
277, 6, 62, 586, 389, 141, 823, 824, 393
278, 389, 586, 587, 388, 824, 825, 826, 392
279, 388, 587, 588, 387, 826, 827, 828, 391
280, 387, 588, 306, 9, 828, 829, 386, 390
281, 62, 63, 589, 586, 142, 830, 831, 823
282, 586, 589, 590, 587, 831, 832, 833, 825
283, 587, 590, 591, 588, 833, 834, 835, 827
284, 588, 591, 305, 306, 835, 836, 385, 829
285, 63, 64, 592, 589, 143, 837, 838, 830
286, 589, 592, 593, 590, 838, 839, 840, 832
287, 590, 593, 594, 591, 840, 841, 842, 834
288, 591, 594, 304, 305, 842, 843, 384, 836
289, 64, 65, 595, 592, 144, 844, 845, 837
290, 592, 595, 596, 593, 845, 846, 847, 839
291, 593, 596, 597, 594, 847, 848, 849, 841
292, 594, 597, 303, 304, 849, 850, 383, 843
293, 65, 66, 598, 595, 145, 851, 852, 844
294, 595, 598, 599, 596, 852, 853, 854, 846
295, 596, 599, 600, 597, 854, 855, 856, 848
296, 597, 600, 302, 303, 856, 857, 382, 850
** ... 300 like lines cut
*Element, Type=CAX8R, Elset=Holder_
597, 1384, 409, 1386, 1381, 1390, 1391, 1392, 1393
598, 1380, 1383, 1389, 1379, 1394, 1395, 1396, 1397
599, 409, 1384, 1388, 408, 1390, 1398, 1399, 412
600, 1389, 394, 395, 1379, 1400, 400, 1401, 1396
601, 398, 11, 405, 1387, 404, 406, 1402, 1403
602, 396, 397, 1384, 1381, 402, 1404, 1393, 1405
603, 395, 396, 1381, 1382, 401, 1405, 1406, 1407
604, 410, 1380, 1379, 1385, 1408, 1397, 1409, 1410
605, 394, 1389, 417, 10, 1400, 1411, 421, 399
606, 395, 1382, 1385, 1379, 1407, 1412, 1409, 1401
607, 415, 416, 1383, 1380, 419, 1413, 1394, 1414
608, 1381, 1386, 1385, 1382, 1392, 1415, 1412, 1406
609, 408, 1388, 405, 12, 1399, 1416, 407, 411
610, 397, 398, 1387, 1384, 403, 1403, 1417, 1404
611, 416, 417, 1389, 1383, 420, 1411, 1395, 1413
612, 1384, 1387, 405, 1388, 1417, 1402, 1416, 1398
613, 409, 410, 1385, 1386, 413, 1410, 1415, 1391
614, 410, 13, 415, 1380, 414, 418, 1414, 1408
*Element, Type=CAX8R, Elset=Die_
615, 1440, 1454, 1457, 1442, 1471, 1472, 1473, 1474
616, 1453, 1435, 1468, 1424, 1475, 1476, 1477, 1478
617, 1451, 1456, 1433, 1434, 1479, 1480, 1481, 1482
618, 1449, 1420, 1445, 1437, 1483, 1484, 1485, 1486
619, 1434, 1433, 1430, 1432, 1481, 1487, 1488, 1489
620, 1422, 1428, 1444, 1429, 1490, 1491, 1492, 1493
621, 1442, 1441, 449, 1426, 1494, 1495, 1496, 1497
622, 1435, 1453, 1422, 1429, 1475, 1498, 1493, 1499
623, 1422, 434, 433, 1428, 1500, 441, 1501, 1490
624, 1439, 437, 436, 1424, 1502, 444, 1503, 1504
625, 1431, 1430, 1433, 1438, 1505, 1487, 1506, 1507
626, 1428, 1427, 1443, 1444, 1508, 1509, 1510, 1491
627, 1430, 1429, 1444, 1432, 1511, 1492, 1512, 1488
628, 1431, 1438, 1461, 1437, 1507, 1513, 1514, 1515
629, 434, 1422, 1453, 435, 1500, 1498, 1516, 442
630, 1424, 436, 435, 1453, 1503, 443, 1516, 1478
631, 1432, 1458, 1466, 1434, 1517, 1518, 1519, 1489
632, 1427, 1428, 433, 1462, 1508, 1501, 1520, 1521
633, 1439, 1424, 1468, 1440, 1504, 1477, 1522, 1523
634, 1431, 1437, 1445, 1436, 1515, 1485, 1524, 1525
** ... 47 like lines cut
**
** Node sets +++++++++++++++++++++++++++++++++++++++++++++++
**
*Nset, Nset=PunchBottom
1, 2, 3, 19, 20, 21, 22, 23, 24, 25, 26, 27, 28
*Nset, Nset=PunchSide
3, 4, 29, 30, 31, 32, 33, 34, 35, 36, 37, 38, 39, 40, 41, 42, 
43
*Nset, Nset=PunchTop
4, 5, 44, 45, 46, 47, 48, 49, 50
*Nset, Nset=BlankBottom
6, 7, 62, 63, 64, 65, 66, 67, 68, 69, 70, 71, 72, 73, 74, 75, 
76, 77, 78, 79, 80, 81, 82, 83, 84, 85, 86, 87, 88, 89, 90, 91, 
92, 93, 94, 95, 96, 97, 98, 99, 100, 101, 102, 103, 104, 105, 106, 107, 
108, 109, 110, 111, 112, 113, 114, 115, 116, 117, 118, 119, 120, 121, 122, 123, 
124, 125, 126, 127, 128, 129, 130, 131, 132, 133, 134, 135, 136, 137, 138, 139, 
140, 141, 142, 143, 144, 145, 146, 147, 148, 149, 150, 151, 152, 153, 154, 155, 
156, 157, 158, 159, 160, 161, 162, 163, 164, 165, 166, 167, 168, 169, 170, 171, 
172, 173, 174, 175, 176, 177, 178, 179, 180, 181, 182, 183, 184, 185, 186, 187, 
188, 189, 190, 191, 192, 193, 194, 195, 196, 197, 198, 199, 200, 201, 202, 203, 
204, 205, 206, 207, 208, 209, 210, 211, 212, 213, 214, 215, 216, 217, 218, 219, 
220
*Nset, Nset=BlankTop
8, 9, 228, 229, 230, 231, 232, 233, 234, 235, 236, 237, 238, 239, 240, 241, 
242, 243, 244, 245, 246, 247, 248, 249, 250, 251, 252, 253, 254, 255, 256, 257, 
258, 259, 260, 261, 262, 263, 264, 265, 266, 267, 268, 269, 270, 271, 272, 273, 
274, 275, 276, 277, 278, 279, 280, 281, 282, 283, 284, 285, 286, 287, 288, 289, 
290, 291, 292, 293, 294, 295, 296, 297, 298, 299, 300, 301, 302, 303, 304, 305, 
306, 307, 308, 309, 310, 311, 312, 313, 314, 315, 316, 317, 318, 319, 320, 321, 
322, 323, 324, 325, 326, 327, 328, 329, 330, 331, 332, 333, 334, 335, 336, 337, 
338, 339, 340, 341, 342, 343, 344, 345, 346, 347, 348, 349, 350, 351, 352, 353, 
354, 355, 356, 357, 358, 359, 360, 361, 362, 363, 364, 365, 366, 367, 368, 369, 
370, 371, 372, 373, 374, 375, 376, 377, 378, 379, 380, 381, 382, 383, 384, 385, 
386
*Nset, Nset=BlankOuter
7, 8, 221, 222, 223, 224, 225, 226, 227
*Nset, Nset=BlankInner
6, 9, 387, 388, 389, 390, 391, 392, 393
*Nset, Nset=BH_Bottom
10, 11, 394, 395, 396, 397, 398, 399, 400, 401, 402, 403, 404
*Nset, Nset=BH_Outer
11, 12, 405, 406, 407
*Nset, Nset=BH_Top
12, 13, 408, 409, 410, 411, 412, 413, 414
*Nset, Nset=BH_Inner
10, 13, 415, 416, 417, 418, 419, 420, 421
*Nset, Nset=DieTop
14, 15, 18, 422, 423, 424, 425, 426, 427, 428, 429, 430, 431, 432, 474, 475, 
476
*Nset, Nset=DieOuter
15, 16, 433, 434, 435, 436, 437, 438, 439, 440, 441, 442, 443, 444, 445, 446, 
447
*Nset, Nset=DieBottom
16, 17, 448, 449, 450, 451, 452, 453, 454
*Nset, Nset=DieInner
17, 18, 455, 456, 457, 458, 459, 460, 461, 462, 463, 464, 465, 466, 467, 468, 
469, 470, 471, 472, 473
*Nset, Nset=Punch
1, 2, 3, 4, 5, 19, 20, 21, 22, 23, 24, 25, 26, 27, 28, 29, 
30, 31, 32, 33, 34, 35, 36, 37, 38, 39, 40, 41, 42, 43, 44, 45, 
46, 47, 48, 49, 50, 51, 52, 53, 54, 55, 56, 57, 58, 59, 60, 61, 
477, 478, 479, 480, 481, 482, 483, 484, 485, 486, 487, 488, 489, 490, 491, 492, 
493, 494, 495, 496, 497, 498, 499, 500, 501, 502, 503, 504, 505, 506, 507, 508, 
509, 510, 511, 512, 513, 514, 515, 516, 517, 518, 519, 520, 521, 522, 523, 524, 
525, 526, 527, 528, 529, 530, 531, 532, 533, 534, 535, 536, 537, 538, 539, 540, 
541, 542, 543, 544, 545, 546, 547, 548, 549, 550, 551, 552, 553, 554, 555, 556, 
557, 558, 559, 560, 561, 562, 563, 564, 565, 566, 567, 568, 569, 570, 571, 572, 
573, 574, 575, 576, 577, 578, 579, 580, 581, 582, 583, 584, 585
*Nset, Nset=Blank
6, 7, 8, 9, 62, 63, 64, 65, 66, 67, 68, 69, 70, 71, 72, 73, 
74, 75, 76, 77, 78, 79, 80, 81, 82, 83, 84, 85, 86, 87, 88, 89, 
90, 91, 92, 93, 94, 95, 96, 97, 98, 99, 100, 101, 102, 103, 104, 105, 
106, 107, 108, 109, 110, 111, 112, 113, 114, 115, 116, 117, 118, 119, 120, 121, 
122, 123, 124, 125, 126, 127, 128, 129, 130, 131, 132, 133, 134, 135, 136, 137, 
138, 139, 140, 141, 142, 143, 144, 145, 146, 147, 148, 149, 150, 151, 152, 153, 
154, 155, 156, 157, 158, 159, 160, 161, 162, 163, 164, 165, 166, 167, 168, 169, 
170, 171, 172, 173, 174, 175, 176, 177, 178, 179, 180, 181, 182, 183, 184, 185, 
186, 187, 188, 189, 190, 191, 192, 193, 194, 195, 196, 197, 198, 199, 200, 201, 
202, 203, 204, 205, 206, 207, 208, 209, 210, 211, 212, 213, 214, 215, 216, 217, 
218, 219, 220, 221, 222, 223, 224, 225, 226, 227, 228, 229, 230, 231, 232, 233, 
234, 235, 236, 237, 238, 239, 240, 241, 242, 243, 244, 245, 246, 247, 248, 249, 
250, 251, 252, 253, 254, 255, 256, 257, 258, 259, 260, 261, 262, 263, 264, 265, 
266, 267, 268, 269, 270, 271, 272, 273, 274, 275, 276, 277, 278, 279, 280, 281, 
282, 283, 284, 285, 286, 287, 288, 289, 290, 291, 292, 293, 294, 295, 296, 297, 
298, 299, 300, 301, 302, 303, 304, 305, 306, 307, 308, 309, 310, 311, 312, 313, 
314, 315, 316, 317, 318, 319, 320, 321, 322, 323, 324, 325, 326, 327, 328, 329, 
330, 331, 332, 333, 334, 335, 336, 337, 338, 339, 340, 341, 342, 343, 344, 345, 
346, 347, 348, 349, 350, 351, 352, 353, 354, 355, 356, 357, 358, 359, 360, 361, 
362, 363, 364, 365, 366, 367, 368, 369, 370, 371, 372, 373, 374, 375, 376, 377, 
** ... 51 like lines cut
*Nset, Nset=BlankHolder
10, 11, 12, 13, 394, 395, 396, 397, 398, 399, 400, 401, 402, 403, 404, 405, 
406, 407, 408, 409, 410, 411, 412, 413, 414, 415, 416, 417, 418, 419, 420, 421, 
1379, 1380, 1381, 1382, 1383, 1384, 1385, 1386, 1387, 1388, 1389, 1390, 1391, 1392, 1393, 1394, 
1395, 1396, 1397, 1398, 1399, 1400, 1401, 1402, 1403, 1404, 1405, 1406, 1407, 1408, 1409, 1410, 
1411, 1412, 1413, 1414, 1415, 1416, 1417
*Nset, Nset=Die
14, 15, 16, 17, 18, 422, 423, 424, 425, 426, 427, 428, 429, 430, 431, 432, 
433, 434, 435, 436, 437, 438, 439, 440, 441, 442, 443, 444, 445, 446, 447, 448, 
449, 450, 451, 452, 453, 454, 455, 456, 457, 458, 459, 460, 461, 462, 463, 464, 
465, 466, 467, 468, 469, 470, 471, 472, 473, 474, 475, 476, 1418, 1419, 1420, 1421, 
1422, 1423, 1424, 1425, 1426, 1427, 1428, 1429, 1430, 1431, 1432, 1433, 1434, 1435, 1436, 1437, 
1438, 1439, 1440, 1441, 1442, 1443, 1444, 1445, 1446, 1447, 1448, 1449, 1450, 1451, 1452, 1453, 
1454, 1455, 1456, 1457, 1458, 1459, 1460, 1461, 1462, 1463, 1464, 1465, 1466, 1467, 1468, 1469, 
1470, 1471, 1472, 1473, 1474, 1475, 1476, 1477, 1478, 1479, 1480, 1481, 1482, 1483, 1484, 1485, 
1486, 1487, 1488, 1489, 1490, 1491, 1492, 1493, 1494, 1495, 1496, 1497, 1498, 1499, 1500, 1501, 
1502, 1503, 1504, 1505, 1506, 1507, 1508, 1509, 1510, 1511, 1512, 1513, 1514, 1515, 1516, 1517, 
1518, 1519, 1520, 1521, 1522, 1523, 1524, 1525, 1526, 1527, 1528, 1529, 1530, 1531, 1532, 1533, 
1534, 1535, 1536, 1537, 1538, 1539, 1540, 1541, 1542, 1543, 1544, 1545, 1546, 1547, 1548, 1549, 
1550, 1551, 1552, 1553, 1554, 1555, 1556, 1557, 1558, 1559, 1560, 1561, 1562, 1563, 1564, 1565, 
1566, 1567, 1568, 1569, 1570, 1571, 1572, 1573, 1574, 1575, 1576, 1577, 1578, 1579, 1580, 1581, 
1582, 1583, 1584, 1585, 1586, 1587, 1588, 1589
*Nset, Nset=Internal_Selection-1_Displacement_Rotation-1
4, 5, 44, 45, 46, 47, 48, 49, 50
*Nset, Nset=Internal_Selection-1_Fixed-1
12, 13, 408, 409, 410, 411, 412, 413, 414
*Nset, Nset=Internal_Selection-1_Fixed-2
16, 17, 448, 449, 450, 451, 452, 453, 454
*Nset, Nset=Internal-1_Internal_Selection-1_Contact_Punch_blank_Master
1, 2, 3, 4, 19, 20, 21, 22, 23, 24, 25, 26, 27, 28, 29, 30, 
31, 32, 33, 34, 35, 36, 37, 38, 39, 40, 41, 42, 43
*Nset, Nset=Internal-1_Internal_Selection-1_Contact_Punch_blank_Slave
8, 9, 228, 229, 230, 231, 232, 233, 234, 235, 236, 237, 238, 239, 240, 241, 
242, 243, 244, 245, 246, 247, 248, 249, 250, 251, 252, 253, 254, 255, 256, 257, 
258, 259, 260, 261, 262, 263, 264, 265, 266, 267, 268, 269, 270, 271, 272, 273, 
274, 275, 276, 277, 278, 279, 280, 281, 282, 283, 284, 285, 286, 287, 288, 289, 
290, 291, 292, 293, 294, 295, 296, 297, 298, 299, 300, 301, 302, 303, 304, 305, 
306, 307, 308, 309, 310, 311, 312, 313, 314, 315, 316, 317, 318, 319, 320, 321, 
322, 323, 324, 325, 326, 327, 328, 329, 330, 331, 332, 333, 334, 335, 336, 337, 
338, 339, 340, 341, 342, 343, 344, 345, 346, 347, 348, 349, 350, 351, 352, 353, 
354, 355, 356, 357, 358, 359, 360, 361, 362, 363, 364, 365, 366, 367, 368, 369, 
370, 371, 372, 373, 374, 375, 376, 377, 378, 379, 380, 381, 382, 383, 384, 385, 
386
*Nset, Nset=Internal-1_Internal_Selection-1_Contact_Holder_blank_Master
10, 11, 394, 395, 396, 397, 398, 399, 400, 401, 402, 403, 404
*Nset, Nset=Internal-1_Internal_Selection-1_Contact_Holder_blank_Slave
8, 9, 228, 229, 230, 231, 232, 233, 234, 235, 236, 237, 238, 239, 240, 241, 
242, 243, 244, 245, 246, 247, 248, 249, 250, 251, 252, 253, 254, 255, 256, 257, 
258, 259, 260, 261, 262, 263, 264, 265, 266, 267, 268, 269, 270, 271, 272, 273, 
274, 275, 276, 277, 278, 279, 280, 281, 282, 283, 284, 285, 286, 287, 288, 289, 
290, 291, 292, 293, 294, 295, 296, 297, 298, 299, 300, 301, 302, 303, 304, 305, 
306, 307, 308, 309, 310, 311, 312, 313, 314, 315, 316, 317, 318, 319, 320, 321, 
322, 323, 324, 325, 326, 327, 328, 329, 330, 331, 332, 333, 334, 335, 336, 337, 
338, 339, 340, 341, 342, 343, 344, 345, 346, 347, 348, 349, 350, 351, 352, 353, 
354, 355, 356, 357, 358, 359, 360, 361, 362, 363, 364, 365, 366, 367, 368, 369, 
370, 371, 372, 373, 374, 375, 376, 377, 378, 379, 380, 381, 382, 383, 384, 385, 
386
*Nset, Nset=Internal-1_Internal_Selection-1_Contact_Die_blank_Master
14, 15, 17, 18, 422, 423, 424, 425, 426, 427, 428, 429, 430, 431, 432, 455, 
456, 457, 458, 459, 460, 461, 462, 463, 464, 465, 466, 467, 468, 469, 470, 471, 
472, 473, 474, 475, 476
*Nset, Nset=Internal-1_Internal_Selection-1_Contact_Die_blank_Slave
6, 7, 62, 63, 64, 65, 66, 67, 68, 69, 70, 71, 72, 73, 74, 75, 
76, 77, 78, 79, 80, 81, 82, 83, 84, 85, 86, 87, 88, 89, 90, 91, 
92, 93, 94, 95, 96, 97, 98, 99, 100, 101, 102, 103, 104, 105, 106, 107, 
108, 109, 110, 111, 112, 113, 114, 115, 116, 117, 118, 119, 120, 121, 122, 123, 
124, 125, 126, 127, 128, 129, 130, 131, 132, 133, 134, 135, 136, 137, 138, 139, 
140, 141, 142, 143, 144, 145, 146, 147, 148, 149, 150, 151, 152, 153, 154, 155, 
156, 157, 158, 159, 160, 161, 162, 163, 164, 165, 166, 167, 168, 169, 170, 171, 
172, 173, 174, 175, 176, 177, 178, 179, 180, 181, 182, 183, 184, 185, 186, 187, 
188, 189, 190, 191, 192, 193, 194, 195, 196, 197, 198, 199, 200, 201, 202, 203, 
204, 205, 206, 207, 208, 209, 210, 211, 212, 213, 214, 215, 216, 217, 218, 219, 
220
**
** Element sets ++++++++++++++++++++++++++++++++++++++++++++
**
*Elset, Elset=Surface11
233, 234, 235, 236, 237, 238, 239, 240, 241, 242, 243, 244, 245, 246, 247, 248, 
249, 250, 251, 252, 253, 254, 255, 256, 257, 258, 259, 260, 261, 262, 263, 264, 
265, 266, 267, 268, 269, 270, 271, 272, 273, 274, 275, 276
*Elset, Elset=Surface21
277, 278, 279, 280, 281, 282, 283, 284, 285, 286, 287, 288, 289, 290, 291, 292, 
293, 294, 295, 296, 297, 298, 299, 300, 301, 302, 303, 304, 305, 306, 307, 308, 
309, 310, 311, 312, 313, 314, 315, 316, 317, 318, 319, 320, 321, 322, 323, 324, 
325, 326, 327, 328, 329, 330, 331, 332, 333, 334, 335, 336, 337, 338, 339, 340, 
341, 342, 343, 344, 345, 346, 347, 348, 349, 350, 351, 352, 353, 354, 355, 356, 
357, 358, 359, 360, 361, 362, 363, 364, 365, 366, 367, 368, 369, 370, 371, 372, 
373, 374, 375, 376, 377, 378, 379, 380, 381, 382, 383, 384, 385, 386, 387, 388, 
389, 390, 391, 392, 393, 394, 395, 396, 397, 398, 399, 400, 401, 402, 403, 404, 
405, 406, 407, 408, 409, 410, 411, 412, 413, 414, 415, 416, 417, 418, 419, 420, 
421, 422, 423, 424, 425, 426, 427, 428, 429, 430, 431, 432, 433, 434, 435, 436, 
437, 438, 439, 440, 441, 442, 443, 444, 445, 446, 447, 448, 449, 450, 451, 452, 
453, 454, 455, 456, 457, 458, 459, 460, 461, 462, 463, 464, 465, 466, 467, 468, 
469, 470, 471, 472, 473, 474, 475, 476, 477, 478, 479, 480, 481, 482, 483, 484, 
485, 486, 487, 488, 489, 490, 491, 492, 493, 494, 495, 496, 497, 498, 499, 500, 
501, 502, 503, 504, 505, 506, 507, 508, 509, 510, 511, 512, 513, 514, 515, 516, 
517, 518, 519, 520, 521, 522, 523, 524, 525, 526, 527, 528, 529, 530, 531, 532, 
533, 534, 535, 536, 537, 538, 539, 540, 541, 542, 543, 544, 545, 546, 547, 548, 
549, 550, 551, 552, 553, 554, 555, 556, 557, 558, 559, 560, 561, 562, 563, 564, 
565, 566, 567, 568, 569, 570, 571, 572, 573, 574, 575, 576, 577, 578, 579, 580, 
581, 582, 583, 584, 585, 586, 587, 588, 589, 590, 591, 592, 593, 594, 595, 596
*Elset, Elset=Surface31
597, 598, 599, 600, 601, 602, 603, 604, 605, 606, 607, 608, 609, 610, 611, 612, 
613, 614
*Elset, Elset=Surface41
615, 616, 617, 618, 619, 620, 621, 622, 623, 624, 625, 626, 627, 628, 629, 630, 
631, 632, 633, 634, 635, 636, 637, 638, 639, 640, 641, 642, 643, 644, 645, 646, 
647, 648, 649, 650, 651, 652, 653, 654, 655, 656, 657, 658, 659, 660, 661, 662, 
663, 664, 665, 666, 667, 668, 669, 670, 671, 672, 673, 674, 675, 676, 677, 678, 
679, 680, 681
*Elset, Elset=Punch
233, 234, 235, 236, 237, 238, 239, 240, 241, 242, 243, 244, 245, 246, 247, 248, 
249, 250, 251, 252, 253, 254, 255, 256, 257, 258, 259, 260, 261, 262, 263, 264, 
265, 266, 267, 268, 269, 270, 271, 272, 273, 274, 275, 276
*Elset, Elset=Blank
277, 278, 279, 280, 281, 282, 283, 284, 285, 286, 287, 288, 289, 290, 291, 292, 
293, 294, 295, 296, 297, 298, 299, 300, 301, 302, 303, 304, 305, 306, 307, 308, 
309, 310, 311, 312, 313, 314, 315, 316, 317, 318, 319, 320, 321, 322, 323, 324, 
325, 326, 327, 328, 329, 330, 331, 332, 333, 334, 335, 336, 337, 338, 339, 340, 
341, 342, 343, 344, 345, 346, 347, 348, 349, 350, 351, 352, 353, 354, 355, 356, 
357, 358, 359, 360, 361, 362, 363, 364, 365, 366, 367, 368, 369, 370, 371, 372, 
373, 374, 375, 376, 377, 378, 379, 380, 381, 382, 383, 384, 385, 386, 387, 388, 
389, 390, 391, 392, 393, 394, 395, 396, 397, 398, 399, 400, 401, 402, 403, 404, 
405, 406, 407, 408, 409, 410, 411, 412, 413, 414, 415, 416, 417, 418, 419, 420, 
421, 422, 423, 424, 425, 426, 427, 428, 429, 430, 431, 432, 433, 434, 435, 436, 
437, 438, 439, 440, 441, 442, 443, 444, 445, 446, 447, 448, 449, 450, 451, 452, 
453, 454, 455, 456, 457, 458, 459, 460, 461, 462, 463, 464, 465, 466, 467, 468, 
469, 470, 471, 472, 473, 474, 475, 476, 477, 478, 479, 480, 481, 482, 483, 484, 
485, 486, 487, 488, 489, 490, 491, 492, 493, 494, 495, 496, 497, 498, 499, 500, 
501, 502, 503, 504, 505, 506, 507, 508, 509, 510, 511, 512, 513, 514, 515, 516, 
517, 518, 519, 520, 521, 522, 523, 524, 525, 526, 527, 528, 529, 530, 531, 532, 
533, 534, 535, 536, 537, 538, 539, 540, 541, 542, 543, 544, 545, 546, 547, 548, 
549, 550, 551, 552, 553, 554, 555, 556, 557, 558, 559, 560, 561, 562, 563, 564, 
565, 566, 567, 568, 569, 570, 571, 572, 573, 574, 575, 576, 577, 578, 579, 580, 
581, 582, 583, 584, 585, 586, 587, 588, 589, 590, 591, 592, 593, 594, 595, 596
*Elset, Elset=BlankHolder
597, 598, 599, 600, 601, 602, 603, 604, 605, 606, 607, 608, 609, 610, 611, 612, 
613, 614
*Elset, Elset=Die
615, 616, 617, 618, 619, 620, 621, 622, 623, 624, 625, 626, 627, 628, 629, 630, 
631, 632, 633, 634, 635, 636, 637, 638, 639, 640, 641, 642, 643, 644, 645, 646, 
647, 648, 649, 650, 651, 652, 653, 654, 655, 656, 657, 658, 659, 660, 661, 662, 
663, 664, 665, 666, 667, 668, 669, 670, 671, 672, 673, 674, 675, 676, 677, 678, 
679, 680, 681
*Elset, Elset=Internal_Selection-1_steel_rigid_body
Punch_, 
Holder_, 
Die_
*Elset, Elset=Internal_Selection-1_all
Blank_
*Elset, Elset=Internal-1_Internal_Selection-1_Contact_Punch_blank_Master_S5
248
*Elset, Elset=Internal-1_Internal_Selection-1_Contact_Punch_blank_Master_S6
248, 253, 255, 257, 259, 262
*Elset, Elset=Internal-1_Internal_Selection-1_Contact_Punch_blank_Master_S3
251, 261, 268, 273, 275, 276
*Elset, Elset=Internal-1_Internal_Selection-1_Contact_Punch_blank_Master_S4
256
*Elset, Elset=Internal-1_Internal_Selection-1_Contact_Punch_blank_Slave_S5
280, 284, 288, 292, 296, 300, 304, 308, 312, 316, 320, 324, 328, 332, 336, 340, 
344, 348, 352, 356, 360, 364, 368, 372, 376, 380, 384, 388, 392, 396, 400, 404, 
408, 412, 416, 420, 424, 428, 432, 436, 440, 444, 448, 452, 456, 460, 464, 468, 
472, 476, 480, 484, 488, 492, 496, 500, 504, 508, 512, 516, 520, 524, 528, 532, 
536, 540, 544, 548, 552, 556, 560, 564, 568, 572, 576, 580, 584, 588, 592, 596
*Elset, Elset=Internal-1_Internal_Selection-1_Contact_Holder_blank_Master_S4
600
*Elset, Elset=Internal-1_Internal_Selection-1_Contact_Holder_blank_Master_S3
601, 602, 603, 610
*Elset, Elset=Internal-1_Internal_Selection-1_Contact_Holder_blank_Master_S6
605
*Elset, Elset=Internal-1_Internal_Selection-1_Contact_Holder_blank_Slave_S5
280, 284, 288, 292, 296, 300, 304, 308, 312, 316, 320, 324, 328, 332, 336, 340, 
344, 348, 352, 356, 360, 364, 368, 372, 376, 380, 384, 388, 392, 396, 400, 404, 
408, 412, 416, 420, 424, 428, 432, 436, 440, 444, 448, 452, 456, 460, 464, 468, 
472, 476, 480, 484, 488, 492, 496, 500, 504, 508, 512, 516, 520, 524, 528, 532, 
536, 540, 544, 548, 552, 556, 560, 564, 568, 572, 576, 580, 584, 588, 592, 596
*Elset, Elset=Internal-1_Internal_Selection-1_Contact_Die_blank_Master_S6
635, 636, 637, 639, 642, 648, 649, 650, 654, 670
*Elset, Elset=Internal-1_Internal_Selection-1_Contact_Die_blank_Master_S5
640, 645
*Elset, Elset=Internal-1_Internal_Selection-1_Contact_Die_blank_Master_S3
643, 651, 652, 672
*Elset, Elset=Internal-1_Internal_Selection-1_Contact_Die_blank_Master_S4
647, 651
*Elset, Elset=Internal-1_Internal_Selection-1_Contact_Die_blank_Slave_S3
277, 281, 285, 289, 293, 297, 301, 305, 309, 313, 317, 321, 325, 329, 333, 337, 
341, 345, 349, 353, 357, 361, 365, 369, 373, 377, 381, 385, 389, 393, 397, 401, 
405, 409, 413, 417, 421, 425, 429, 433, 437, 441, 445, 449, 453, 457, 461, 465, 
469, 473, 477, 481, 485, 489, 493, 497, 501, 505, 509, 513, 517, 521, 525, 529, 
533, 537, 541, 545, 549, 553, 557, 561, 565, 569, 573, 577, 581, 585, 589, 593
**
** Surfaces ++++++++++++++++++++++++++++++++++++++++++++++++
**
*Surface, Name=Internal_Selection-1_Contact_Punch_blank_Master, Type=Element
Internal-1_Internal_Selection-1_Contact_Punch_blank_Master_S5, S3
Internal-1_Internal_Selection-1_Contact_Punch_blank_Master_S6, S4
Internal-1_Internal_Selection-1_Contact_Punch_blank_Master_S3, S1
Internal-1_Internal_Selection-1_Contact_Punch_blank_Master_S4, S2
*Surface, Name=Internal_Selection-1_Contact_Punch_blank_Slave, Type=Element
Internal-1_Internal_Selection-1_Contact_Punch_blank_Slave_S5, S3
*Surface, Name=Internal_Selection-1_Contact_Holder_blank_Master, Type=Element
Internal-1_Internal_Selection-1_Contact_Holder_blank_Master_S4, S2
Internal-1_Internal_Selection-1_Contact_Holder_blank_Master_S3, S1
Internal-1_Internal_Selection-1_Contact_Holder_blank_Master_S6, S4
*Surface, Name=Internal_Selection-1_Contact_Holder_blank_Slave, Type=Element
Internal-1_Internal_Selection-1_Contact_Holder_blank_Slave_S5, S3
*Surface, Name=Internal_Selection-1_Contact_Die_blank_Master, Type=Element
Internal-1_Internal_Selection-1_Contact_Die_blank_Master_S6, S4
Internal-1_Internal_Selection-1_Contact_Die_blank_Master_S5, S3
Internal-1_Internal_Selection-1_Contact_Die_blank_Master_S3, S1
Internal-1_Internal_Selection-1_Contact_Die_blank_Master_S4, S2
*Surface, Name=Internal_Selection-1_Contact_Die_blank_Slave, Type=Element
Internal-1_Internal_Selection-1_Contact_Die_blank_Slave_S3, S1
**
** Physical constants ++++++++++++++++++++++++++++++++++++++
**
**
** Coordinate systems ++++++++++++++++++++++++++++++++++++++
**
**
** Materials +++++++++++++++++++++++++++++++++++++++++++++++
**
*Material, Name=S185
*Density
7.8E-09
*Elastic
210000, 0.28
*Expansion, Zero=20
1.1E-05
*Conductivity
14
*Specific heat
440000000
*Material, Name=1060_Alloy
*Density
2.7E-09
*Elastic69000, 0.33
*Expansion, Zero=20
2.4E-05
*Conductivity
200
*Specific heat
900000000
*Plastic
30, 0
35, 0.02
40, 0.06
45, 0.12
50, 0.2
60, 0.3
70, 0.4
**
** Sections ++++++++++++++++++++++++++++++++++++++++++++++++
**
*Solid section, Elset=Internal_Selection-1_steel_rigid_body, Material=S185
1
*Solid section, Elset=Internal_Selection-1_all, Material=1060_Alloy
1
**
** Pre-tension sections ++++++++++++++++++++++++++++++++++++
**
**
** Constraints +++++++++++++++++++++++++++++++++++++++++++++
**
**
** Surface interactions ++++++++++++++++++++++++++++++++++++
**
*Surface interaction, Name=Surface_Interaction-1
*Surface behavior, Pressure-overclosure=Linear
1000, 1000
*Friction
0.03
**
** Contact pairs +++++++++++++++++++++++++++++++++++++++++++
**
*Contact pair, Interaction=Surface_Interaction-1, Type=Surface to surface, Adjust=0.01
Internal_Selection-1_Contact_Punch_blank_Slave, Internal_Selection-1_Contact_Punch_blank_Master
*Contact pair, Interaction=Surface_Interaction-1, Type=Surface to surface, Adjust=0.1
Internal_Selection-1_Contact_Holder_blank_Slave, Internal_Selection-1_Contact_Holder_blank_Master
*Contact pair, Interaction=Surface_Interaction-1, Type=Surface to surface, Adjust=0.1
Internal_Selection-1_Contact_Die_blank_Slave, Internal_Selection-1_Contact_Die_blank_Master
**
** Amplitudes ++++++++++++++++++++++++++++++++++++++++++++++
**
**
** Initial conditions ++++++++++++++++++++++++++++++++++++++
**
**
** Steps +++++++++++++++++++++++++++++++++++++++++++++++++++
**
**
** Step-5mm ++++++++++++++++++++++++++++++++++++++++++++++++
**
*Step, Nlgeom, Inc=1000
*Static
0.001, 0.5, 1E-10, 0.01
**
** Controls ++++++++++++++++++++++++++++++++++++++++++++++++
**
**
** Output frequency ++++++++++++++++++++++++++++++++++++++++
**
**
** Boundary conditions +++++++++++++++++++++++++++++++++++++
**
*Boundary, op=New
** Name: Displacement_Rotation-1
*Boundary
Internal_Selection-1_Displacement_Rotation-1, 2, 2, -5
** Name: Fixed-1
*Boundary
Internal_Selection-1_Fixed-1, 1, 2, 0

** Name: Fixed-2
*Boundary
Internal_Selection-1_Fixed-2, 1, 2, 0

**
** Loads +++++++++++++++++++++++++++++++++++++++++++++++++++
**
*Cload, op=New
*Dload, op=New
**
** Defined fields ++++++++++++++++++++++++++++++++++++++++++
**
**
** History outputs +++++++++++++++++++++++++++++++++++++++++
**
**
** Field outputs +++++++++++++++++++++++++++++++++++++++++++
**
*Node file
RF, U
*El file
S, PHS, E, ME, PEEQ, NOE
**
** End step ++++++++++++++++++++++++++++++++++++++++++++++++
**
*End step
**
** Step-8mm ++++++++++++++++++++++++++++++++++++++++++++++++
**
*Step, Nlgeom, Inc=1000
*Static
0.001, 0.5, 1E-10, 0.01
**
** Controls ++++++++++++++++++++++++++++++++++++++++++++++++
**
**
** Output frequency ++++++++++++++++++++++++++++++++++++++++
**
**
** Boundary conditions +++++++++++++++++++++++++++++++++++++
**
*Boundary, op=New
** Name: Displacement_Rotation-1
*Boundary
Internal_Selection-1_Displacement_Rotation-1, 2, 2, -8
** Name: Fixed-1
*Boundary
Internal_Selection-1_Fixed-1, 1, 2, 0

** Name: Fixed-2
*Boundary
Internal_Selection-1_Fixed-2, 1, 2, 0

**
** Loads +++++++++++++++++++++++++++++++++++++++++++++++++++
**
*Cload, op=New
*Dload, op=New
**
** Defined fields ++++++++++++++++++++++++++++++++++++++++++
**
**
** History outputs +++++++++++++++++++++++++++++++++++++++++
**
**
** Field outputs +++++++++++++++++++++++++++++++++++++++++++
**
*Node file
RF, U
*El file
S, PHS, E, ME, PEEQ, NOE
**
** End step ++++++++++++++++++++++++++++++++++++++++++++++++
**
*End step
**
** Step-10mm +++++++++++++++++++++++++++++++++++++++++++++++
**
*Step, Nlgeom, Inc=1000
*Static
0.001, 1, 1E-10, 0.01
**
** Controls ++++++++++++++++++++++++++++++++++++++++++++++++
**
**
** Output frequency ++++++++++++++++++++++++++++++++++++++++
**
**
** Boundary conditions +++++++++++++++++++++++++++++++++++++
**
*Boundary, op=New
** Name: Displacement_Rotation-1
*Boundary
Internal_Selection-1_Displacement_Rotation-1, 2, 2, -10
** Name: Fixed-1
*Boundary
Internal_Selection-1_Fixed-1, 1, 2, 0

** Name: Fixed-2
*Boundary
Internal_Selection-1_Fixed-2, 1, 2, 0

**
** Loads +++++++++++++++++++++++++++++++++++++++++++++++++++
**
*Cload, op=New
*Dload, op=New
**
** Defined fields ++++++++++++++++++++++++++++++++++++++++++
**
**
** History outputs +++++++++++++++++++++++++++++++++++++++++
**
**
** Field outputs +++++++++++++++++++++++++++++++++++++++++++
**
*Node file
RF, U
*El file
S, PHS, E, ME, PEEQ, NOE
**
** End step ++++++++++++++++++++++++++++++++++++++++++++++++
**
*End step
**
** Step-17mm +++++++++++++++++++++++++++++++++++++++++++++++
**
*Step, Nlgeom, Inc=1000
*Static
0.001, 1.5, 1E-10, 0.01
**
** Controls ++++++++++++++++++++++++++++++++++++++++++++++++
**
**
** Output frequency ++++++++++++++++++++++++++++++++++++++++
**
**
** Boundary conditions +++++++++++++++++++++++++++++++++++++
**
*Boundary, op=New
** Name: Displacement_Rotation-1
*Boundary
Internal_Selection-1_Displacement_Rotation-1, 2, 2, -17
** Name: Fixed-1
*Boundary
Internal_Selection-1_Fixed-1, 1, 2, 0

** Name: Fixed-2
*Boundary
Internal_Selection-1_Fixed-2, 1, 2, 0

**
** Loads +++++++++++++++++++++++++++++++++++++++++++++++++++
**
*Cload, op=New
*Dload, op=New
**
** Defined fields ++++++++++++++++++++++++++++++++++++++++++
**
**
** History outputs +++++++++++++++++++++++++++++++++++++++++
**
**
** Field outputs +++++++++++++++++++++++++++++++++++++++++++
**
*Node file
RF, U
*El file
S, PHS, E, ME, PEEQ, NOE
**
** End step ++++++++++++++++++++++++++++++++++++++++++++++++
**
*End step
**
** Step-20mm +++++++++++++++++++++++++++++++++++++++++++++++
**
*Step, Nlgeom, Inc=1000
*Static
0.001, 2, 1E-10, 0.01
**
** Controls ++++++++++++++++++++++++++++++++++++++++++++++++
**
**
** Output frequency ++++++++++++++++++++++++++++++++++++++++
**
**
** Boundary conditions +++++++++++++++++++++++++++++++++++++
**
*Boundary, op=New
** Name: Displacement_Rotation-1
*Boundary
Internal_Selection-1_Displacement_Rotation-1, 2, 2, -20
** Name: Fixed-1
*Boundary
Internal_Selection-1_Fixed-1, 1, 2, 0

** Name: Fixed-2
*Boundary
Internal_Selection-1_Fixed-2, 1, 2, 0

**
** Loads +++++++++++++++++++++++++++++++++++++++++++++++++++
**
*Cload, op=New
*Dload, op=New
**
** Defined fields ++++++++++++++++++++++++++++++++++++++++++
**
**
** History outputs +++++++++++++++++++++++++++++++++++++++++
**
**
** Field outputs +++++++++++++++++++++++++++++++++++++++++++
**
*Node file
RF, U
*El file
S, PHS, E, ME, PEEQ, NOE
**
** End step ++++++++++++++++++++++++++++++++++++++++++++++++
**
*End step
**
** Step-17mm_upward ++++++++++++++++++++++++++++++++++++++++
**
*Step, Nlgeom, Inc=1000
*Static
0.001, 2, 1E-10, 0.01
**
** Controls ++++++++++++++++++++++++++++++++++++++++++++++++
**
**
** Output frequency ++++++++++++++++++++++++++++++++++++++++
**
**
** Boundary conditions +++++++++++++++++++++++++++++++++++++
**
*Boundary, op=New
** Name: Displacement_Rotation-1
*Boundary
Internal_Selection-1_Displacement_Rotation-1, 2, 2, -17
** Name: Fixed-1
*Boundary
Internal_Selection-1_Fixed-1, 1, 2, 0

** Name: Fixed-2
*Boundary
Internal_Selection-1_Fixed-2, 1, 2, 0

**
** Loads +++++++++++++++++++++++++++++++++++++++++++++++++++
**
*Cload, op=New
*Dload, op=New
**
** Defined fields ++++++++++++++++++++++++++++++++++++++++++
**
**
** History outputs +++++++++++++++++++++++++++++++++++++++++
**
**
** Field outputs +++++++++++++++++++++++++++++++++++++++++++
**
*Node file
RF, U
*El file
S, PHS, E, ME, PEEQ, NOE
**
** End step ++++++++++++++++++++++++++++++++++++++++++++++++
**
*End step
