*Heading
 skirt with openings and holes under load

*INCLUDE, INPUT=noframes_all.msh
** remote point definition
*NODE
17822,0,0,-9384

*BOUNDARY
Nbottom_ring,1,6

*MATERIAL,NAME=STEEL
*ELASTIC
210000,0.3

*SOLID SECTION, ELSET=Eskir_sless_extruded, MATERIAL=STEEL
**
*SOLID SECTION, ELSET=Eskir_carbo_mid_extruded, MATERIAL=STEEL
**
*SOLID SECTION, ELSET=Eskir_carbo_und_extruded, MATERIAL=STEEL
**

*COUPLING, REF NODE= 17822, SURFACE=Stop_ring, CONSTRAINT NAME=remote_load
*KINEMATIC
1,3
*STEP, NLGEOM, INC=200
*STATIC
*CLOAD
17822,3,23.38E3
*BOUNDARY
17822,4,6
*NODE FILE
U
*NODE PRINT, NSET=Nbottom_ring, TOTALS=YES
RF
RM
*EL FILE
S
*END STEP

